Testing testing 1234567890.
New Line. ~!@#$%^&*()_+}{|?><:"/.,;'[]\
	New Line Tab.
My name is Rob Just.
